andes/cases/wecc/wecc.raw
0,   100.00,  32, 0, 1, 60.00     / PSS(R)E 32 RAW created by rawd32  THU, MAY 21 2020  10:24
CURENT WECC 179-BUS 263-BRANCH SYSTEM (MODIFIED)
DISTRIBUTED WITH ANDES (HTTPS://GITHUB.COM/CURENT/ANDES)
     1,'CORONADO    ', 500.0000,1,   1,   1,   1,0.97947, -26.1745
     2,'CHOLLA      ', 345.0000,1,   1,   1,   1,0.97744, -16.9603
     3,'CORONADO    ',  20.0000,2,   1,   1,   1,1.04000, -19.6589
     4,'CRAIG       ', 345.0000,1,   1,   1,   1,0.97518,  16.2755
     5,'CRAIG       ',  22.0000,2,   1,   1,   1,0.95000,  23.5536
     6,'FOURCORN    ', 500.0000,1,   1,   1,   1,1.06814,  -7.9038
     7,'FOURCORN    ', 345.0000,1,   1,   1,   1,1.00914,  -4.6874
     8,'FCNGN4CC    ',  22.0000,2,   1,   1,   1,1.00000,   2.2301
     9,'FOURCORN    ', 230.0000,1,   1,   1,   1,1.00726,  -5.2308
    10,'HAYDEN      ',  20.0000,2,   1,   1,   1,1.00000,  33.7299
    11,'NAVAJO      ', 500.0000,1,   2,   1,   1,1.07205, -23.9351
    12,'NAVAJO 2    ',  26.0000,2,   2,   1,   1,1.00000, -17.8112
    13,'MOENKOPI    ', 500.0000,1,   2,   1,   1,1.06735, -24.8548
    14,'PALOVRD2    ',  24.0000,2,   2,   1,   1,0.96000, -21.7139
    15,'PALOVRDE    ', 500.0000,1,   2,   1,   1,1.04856, -29.6406
    16,'SAN JUAN    ', 345.0000,1,   1,   1,   1,1.03559,  -3.8744
    17,'SJUAN G4    ',  22.0000,2,   1,   1,   1,1.00000,  -0.8871
    18,'WESTWING    ', 500.0000,1,   2,   1,   1,1.05593, -29.5910
    19,'NAVAJO1     ', 500.0000,1,   2,   1,   1,1.07025, -22.8500
    20,'NAVAJO2     ', 500.0000,1,   2,   1,   1,1.06042, -25.9522
    21,'NAVAJO3     ', 500.0000,1,   2,   1,   1,1.04693, -22.1208
    22,'NAVAJO4     ', 500.0000,1,   2,   1,   1,1.02564, -31.4586
    23,'MOENKOP1    ', 500.0000,1,   2,   1,   1,1.05571, -23.3906
    24,'MOENKOP2    ', 500.0000,1,   2,   1,   1,1.04116, -31.0832
    25,'MOENKOP3    ', 500.0000,1,   2,   1,   1,1.05132, -15.5499
    26,'MOENKOP4    ', 500.0000,1,   2,   1,   1,1.04671, -42.3967
    27,'FOURCOR1    ', 500.0000,1,   1,   1,   1,1.06585,  -5.7792
    28,'FOURCOR2    ', 500.0000,1,   1,   1,   1,1.06933, -27.9822
    29,'CANAD G1    ',  20.0000,2,   1,   1,   1,1.00000,  24.7380
    30,'CANADA      ', 500.0000,1,   1,   1,   1,1.03634,  20.9474
    31,'CANALB      ', 500.0000,1,   1,   1,   1,1.07861,  49.2370
    32,'CA230TO     ', 230.0000,1,   1,   1,   1,0.97855,  53.8260
    33,'CA230       ', 230.0000,1,   1,   1,   1,1.00114,  62.8749
    34,'CMAIN GM    ',  20.0000,2,   1,   1,   1,1.02000,  67.7961
    35,'BRIDGER2    ',  22.0000,2,   1,   1,   1,1.00900,   2.4615
    36,'ADELANTO    ', 500.0000,1,   2,   1,   1,1.06032, -42.1554
    37,'ADELAN&1    ', 500.0000,1,   2,   1,   1,1.08090, -46.2256
    38,'CASTAIC     ', 230.0000,1,   2,   1,   1,1.03195, -47.2901
    39,'CASTAI4G    ',  18.0000,2,   2,   1,   1,1.02000, -45.9803
    40,'GLENDAL     ', 230.0000,1,   2,   1,   1,1.02337, -50.9223
    41,'HAYNES      ', 230.0000,1,   2,   1,   1,1.03129, -50.6520
    42,'HAYNES3G    ',  18.0000,2,   2,   1,   1,1.00000, -47.3488
    43,'INTERMT     ', 345.0000,1,   1,   1,   1,1.05257,  -4.3661
    44,'INTERM1G    ',  26.0000,2,   1,   1,   1,1.05000,   0.2811
    45,'OLIVE       ', 230.0000,1,   2,   1,   1,1.03475, -47.6289
    46,'OWENS G     ',  11.5000,2,   2,   1,   1,1.02000, -47.2682
    47,'RINALDI     ', 230.0000,1,   2,   1,   1,1.03402, -47.8387
    48,'RINALDI     ', 500.0000,1,   2,   1,   1,1.07212, -45.4811
    49,'RIVER       ', 230.0000,1,   2,   1,   1,1.02362, -51.8438
    50,'STA B       ', 138.0000,1,   2,   1,   1,1.03256, -51.9003
    51,'STA B1      ', 287.0000,1,   2,   1,   1,1.03663, -50.7167
    52,'STA B2      ', 287.0000,1,   2,   1,   1,1.03663, -50.7167
    53,'STA BLD     ', 230.0000,1,   2,   1,   1,1.02728, -52.1086
    54,'STA E       ', 230.0000,1,   2,   1,   1,1.02516, -50.0567
    55,'STA E       ', 500.0000,1,   2,   1,   1,1.04304, -47.6632
    56,'STA F       ', 230.0000,1,   2,   1,   1,1.02484, -51.8789
    57,'STA G       ', 230.0000,1,   2,   1,   1,1.02394, -51.1740
    58,'STA J       ', 230.0000,1,   2,   1,   1,1.03112, -48.9133
    59,'SYLMARLA    ', 230.0000,1,   2,   1,   1,1.03832, -47.1488
    60,'SYLMAR S    ', 230.0000,1,   2,   1,   1,1.02073, -48.2552
    61,'VALLEY      ', 230.0000,1,   2,   1,   1,1.02930, -49.0304
    62,'VICTORVL    ', 287.0000,1,   2,   1,   1,1.05209, -44.4925
    63,'VICTORVL    ', 500.0000,1,   2,   1,   1,1.05866, -42.4751
    64,'MONTA G1    ',  20.0000,2,   1,   1,   1,1.00000,  56.5947
    65,'MONTANA     ', 500.0000,1,   1,   1,   1,1.04928,  48.2022
    66,'BIG EDDY    ', 115.0000,1,   1,   1,   1,1.06863, -16.9326
    67,'BIG EDDY    ', 230.0000,1,   1,   1,   1,1.06592, -14.5699
    68,'BIG EDDY    ', 500.0000,1,   1,   1,   1,1.08919, -13.3098
    69,'DALLES21    ',  13.8000,2,   1,   1,   1,1.05500,  -7.9400
    70,'CELILO      ', 230.0000,1,   1,   1,   1,1.06159, -15.0760
    71,'CELILOCA    ', 500.0000,1,   1,   1,   1,1.08964, -13.4178
    72,'COLSTRP     ', 500.0000,1,   1,   1,   1,1.07839,  -1.3595
    73,'COULEE      ', 500.0000,1,   1,   1,   1,1.07000,   0.1645
    74,'GARRISON    ', 500.0000,1,   1,   1,   1,1.03705, -12.1586
    75,'JOHN DAY    ', 500.0000,1,   1,   1,   1,1.08283, -11.1230
    76,'JOHN DAY    ',  13.8000,3,   1,   1,   1,1.00000,   0.0000
    77,'HANFORD     ', 500.0000,1,   1,   1,   1,1.04947,   0.2258
    78,'NORTH G3    ',  20.0000,2,   1,   1,   1,1.00000,  26.5872
    79,'NORTH       ', 500.0000,1,   1,   1,   1,1.04993,  12.1085
    80,'BURNS       ', 500.0000,1,   1,   1,   1,1.05295, -19.5513
    81,'GRIZZLY     ', 500.0000,1,   1,   1,   1,1.06740, -17.1477
    82,'MALIN       ', 500.0000,1,   1,   1,   1,1.05433, -23.3455
    83,'MIDPOINT    ', 500.0000,1,   1,   1,   1,1.06195,  -5.1981
    84,'MIDPOINT    ', 345.0000,1,   1,   1,   1,0.99845,  -1.5707
    85,'SUMMER L    ', 500.0000,1,   1,   1,   1,1.05818, -18.2347
    86,'GRIZZLY1    ', 500.0000,1,   1,   1,   1,1.06533, -18.7474
    87,'GRIZZLY2    ', 500.0000,1,   1,   1,   1,1.07143, -16.0156
    88,'MALIN1      ', 500.0000,1,   1,   1,   1,1.05062, -14.1380
    89,'MALIN2      ', 500.0000,1,   1,   1,   1,1.06088, -19.8058
    90,'GRIZZLY3    ', 500.0000,1,   1,   1,   1,1.07997, -21.7956
    91,'GRIZZLY4    ', 500.0000,1,   1,   1,   1,1.06943, -17.2249
    92,'GRIZZLY5    ', 500.0000,1,   1,   1,   1,1.06860, -22.4488
    93,'GRIZZLY6    ', 500.0000,1,   1,   1,   1,1.07170, -17.8609
    94,'GRIZZLY7    ', 500.0000,1,   1,   1,   1,1.07926, -22.0559
    95,'GRIZZLY8    ', 500.0000,1,   1,   1,   1,1.06917, -17.2247
    96,'GRIZZLY9    ', 500.0000,1,   1,   1,   1,1.06761, -22.7454
    97,'GRIZZLYA    ', 500.0000,1,   1,   1,   1,1.07104, -17.8942
    98,'BURNS1      ', 500.0000,1,   1,   1,   1,0.97284,   8.0442
    99,'CORTINA     ', 200.0000,1,   3,   1,   1,1.13097, -34.9741
   100,'COTWDPGE    ', 200.0000,1,   3,   1,   1,1.13613, -30.4883
   101,'DIABLO      ', 500.0000,1,   2,   1,   1,1.05298, -46.1260
   102,'DIABLO1     ',  25.0000,2,   2,   1,   1,0.98000, -42.3238
   103,'GATES       ', 500.0000,1,   2,   1,   1,1.04707, -47.6820
   104,'GLENN       ', 200.0000,1,   3,   1,   1,1.14090, -34.1986
   105,'LOGAN CR    ', 200.0000,1,   3,   1,   1,1.14016, -34.5836
   106,'LOSBANOS    ', 500.0000,1,   2,   1,   1,1.04927, -49.5273
   107,'MIDWAY      ', 500.0000,1,   2,   1,   1,1.05934, -48.6051
   108,'MIDWAY      ', 200.0000,1,   2,   1,   1,1.16705, -51.4430
   109,'MOSSLAND    ', 500.0000,1,   2,   1,   1,1.04639, -49.7921
   110,'OLINDA      ', 500.0000,1,   3,   1,   1,1.03727, -31.0686
   111,'ROUND MT    ',  20.0000,2,   3,   1,   1,1.02000, -15.0791
   112,'ROUND MT    ', 200.0000,1,   3,   1,   1,1.12385, -25.1402
   113,'ROUND MT    ', 500.0000,1,   3,   1,   1,1.03454, -27.9316
   114,'TABLE MT    ', 500.0000,1,   3,   1,   1,1.01342, -32.0699
   115,'TEVATR      ',  20.0000,2,   3,   1,   1,1.05000, -35.6850
   116,'TEVATR      ', 200.0000,1,   3,   1,   1,1.12744, -39.6332
   117,'TEVATR2     ',  20.0000,2,   3,   1,   1,1.00000, -30.7816
   118,'TEVATR      ', 500.0000,1,   3,   1,   1,0.99816, -38.9938
   119,'OLINDA1     ', 500.0000,1,   3,   1,   1,1.05026, -24.0934
   120,'OLINDA2     ', 500.0000,1,   3,   1,   1,1.01142, -38.0294
   121,'OLINDA3     ', 500.0000,1,   3,   1,   1,1.02786, -30.7891
   122,'OLINDA4     ', 500.0000,1,   3,   1,   1,0.98098, -46.5990
   123,'ROUND1      ', 500.0000,1,   3,   1,   1,1.04054, -22.0273
   124,'ROUND2      ', 500.0000,1,   3,   1,   1,1.01079, -36.1445
   125,'ROUND3      ', 500.0000,1,   3,   1,   1,1.04054, -22.0273
   126,'ROUND4      ', 500.0000,1,   3,   1,   1,1.01079, -36.1445
   127,'TABLE1      ', 500.0000,1,   3,   1,   1,1.01257, -25.8067
   128,'TABLE2      ', 500.0000,1,   3,   1,   1,0.99882, -45.3405
   129,'TABLE3      ', 500.0000,1,   3,   1,   1,1.01755, -27.3173
   130,'TABLE4      ', 500.0000,1,   3,   1,   1,0.99876, -41.4218
   131,'TEVATR1     ', 500.0000,1,   2,   1,   1,0.97999, -36.9419
   132,'TEVATR2     ', 500.0000,1,   2,   1,   1,1.07047, -51.7010
   133,'TEVATR3     ', 500.0000,1,   2,   1,   1,0.97141, -35.0590
   134,'GATES1      ', 500.0000,1,   2,   1,   1,1.06807, -49.9922
   135,'DEVERS      ', 500.0000,1,   2,   1,   1,1.03539, -43.5212
   136,'EAGLROCK    ', 230.0000,1,   2,   1,   1,1.01010, -52.7598
   137,'ELDORADO    ',  20.0000,2,   2,   1,   1,1.02000, -25.9732
   138,'ELDORADO    ', 500.0000,1,   2,   1,   1,1.05122, -33.0947
   139,'LITEHIPE    ',  20.0000,2,   2,   1,   1,1.02000, -49.6246
   140,'LITEHIPE    ', 230.0000,1,   2,   1,   1,1.01186, -55.7741
   141,'LUGO        ', 500.0000,1,   2,   1,   1,1.05498, -46.0893
   142,'MESA CAL    ', 230.0000,1,   2,   1,   1,1.00705, -55.0594
   143,'MIRALOMA    ',  20.0000,2,   2,   1,   1,1.05000, -45.4414
   144,'MIRALOMA    ', 500.0000,1,   2,   1,   1,1.04087, -49.6789
   145,'MIRALOMA    ', 230.0000,1,   2,   1,   1,1.03821, -50.1247
   146,'MOHAVE      ', 500.0000,1,   2,   1,   1,1.06999, -29.3603
   147,'MOHAV1CC    ',  22.0000,2,   2,   1,   1,1.05000, -21.0397
   148,'PARDEE      ',  20.0000,2,   2,   1,   1,1.01000, -39.5994
   149,'PARDEE      ', 230.0000,1,   2,   1,   1,1.00600, -51.6818
   150,'SERRANO     ', 500.0000,1,   2,   1,   1,1.04129, -50.0775
   151,'VALLEY      ', 500.0000,1,   2,   1,   1,1.03694, -47.7607
   152,'VINCENT     ', 500.0000,1,   2,   1,   1,1.06119, -48.9450
   153,'VINCENT     ', 230.0000,1,   2,   1,   1,0.99489, -51.6324
   154,'CAMP WIL    ', 345.0000,1,   1,   1,   1,1.04289,  -2.4160
   155,'BENLOMND    ', 345.0000,1,   1,   1,   1,1.04464,  -3.3929
   156,'BENLOMND    ', 230.0000,1,   1,   1,   1,1.04624,  -3.9585
   157,'EMERY       ', 345.0000,1,   1,   1,   1,1.03705,   4.8898
   158,'EMERY       ',  20.0000,2,   1,   1,   1,1.05000,   9.6052
   159,'MONA        ', 345.0000,1,   1,   1,   1,1.05596,  -2.0072
   160,'NAUGHTON    ', 230.0000,1,   1,   1,   1,1.04453,   0.6143
   161,'NAUGHT      ',  20.0000,2,   1,   1,   1,1.00000,   3.4140
   162,'PINTO PS    ', 345.0000,1,   1,   1,   1,1.03679,  -2.4413
   163,'PINTO       ', 345.0000,1,   1,   1,   1,1.04044,  -1.4027
   164,'SPAN FRK    ', 345.0000,1,   1,   1,   1,1.03514,  -1.0920
   165,'SIGURD      ', 345.0000,1,   1,   1,   1,1.05190,  -0.5455
   166,'TERMINAL    ', 345.0000,1,   1,   1,   1,1.03911,  -3.4207
   167,'MALIN3      ', 500.0000,1,   3,   1,   1,1.06106, -19.7689
   168,'MALIN4      ', 500.0000,1,   3,   1,   1,1.02557, -31.6678
   169,'MALIN5      ', 500.0000,1,   3,   1,   1,1.06179, -19.0138
   170,'MALIN6      ', 500.0000,1,   3,   1,   1,1.02702, -31.6971
   171,'MALIN7      ', 500.0000,1,   3,   1,   1,1.05696, -17.4396
   172,'MALIN8      ', 500.0000,1,   3,   1,   1,1.03194, -37.1499
   173,'MIDWAY1     ', 500.0000,1,   2,   1,   1,1.04651, -48.2385
   174,'MIDWAY2     ', 500.0000,1,   2,   1,   1,1.05458, -49.3078
   175,'MIDWAY3     ', 500.0000,1,   2,   1,   1,1.04625, -48.2334
   176,'MIDWAY4     ', 500.0000,1,   2,   1,   1,1.05470, -49.3092
   177,'MIDWAY5     ', 500.0000,1,   2,   1,   1,1.04598, -48.2211
   178,'MIDWAY6     ', 500.0000,1,   2,   1,   1,1.05705, -49.2854
   179,'BURNS2      ', 500.0000,1,   1,   1,   1,0.98437,  -6.6858
 0 /End of Bus data, Begin Load data
     1,'BL',1,   1,   1,  1750.000,   -56.000,     0.000,     0.000,     0.000,     0.000,   1,1
     3,'BL',1,   1,   1,   100.000,     0.000,     0.000,     0.000,     0.000,     0.000,   1,1
     4,'BL',1,   1,   1,  2350.000,  -127.000,     0.000,     0.000,     0.000,     0.000,   1,1
     5,'BL',1,   1,   1,   100.000,     0.000,     0.000,     0.000,     0.000,     0.000,   1,1
     7,'BL',1,   1,   1,   239.000,   -56.000,     0.000,     0.000,     0.000,     0.000,   1,1
     8,'BL',1,   1,   1,   100.000,     0.000,     0.000,     0.000,     0.000,     0.000,   1,1
     9,'BL',1,   1,   1,   139.700,    23.800,     0.000,     0.000,     0.000,     0.000,   1,1
    10,'BL',1,   1,   1,   100.000,     0.000,     0.000,     0.000,     0.000,     0.000,   1,1
    11,'BL',1,   2,   1,    90.000,    70.000,     0.000,     0.000,     0.000,     0.000,   1,1
    12,'BL',1,   2,   1,   100.000,     0.000,     0.000,     0.000,     0.000,     0.000,   1,1
    14,'BL',1,   2,   1,   100.000,     0.000,     0.000,     0.000,     0.000,     0.000,   1,1
    15,'BL',1,   2,   1,   793.400,   207.000,     0.000,     0.000,     0.000,     0.000,   1,1
    16,'BL',1,   1,   1,   840.000,     5.000,     0.000,     0.000,     0.000,     0.000,   1,1
    17,'BL',1,   1,   1,   100.000,     0.000,     0.000,     0.000,     0.000,     0.000,   1,1
    18,'BL',1,   2,   1,   617.000,   -69.000,     0.000,     0.000,     0.000,     0.000,   1,1
    29,'BL',1,   1,   1,   100.000,     0.000,     0.000,     0.000,     0.000,     0.000,   1,1
    30,'BL',1,   1,   1,  4400.000,  1000.000,     0.000,     0.000,     0.000,     0.000,   1,1
    33,'BL',1,   1,   1,  3600.000,   700.000,     0.000,     0.000,     0.000,     0.000,   1,1
    34,'BL',1,   1,   1,   100.000,     0.000,     0.000,     0.000,     0.000,     0.000,   1,1
    35,'BL',1,   1,   1,   100.000,     0.000,     0.000,     0.000,     0.000,     0.000,   1,1
    36,'BL',1,   2,   1, -1862.000,   971.000,     0.000,     0.000,     0.000,     0.000,   1,1
    39,'BL',1,   2,   1,   100.000,     0.000,     0.000,     0.000,     0.000,     0.000,   1,1
    40,'BL',1,   2,   1,   135.000,    27.000,     0.000,     0.000,     0.000,     0.000,   1,1
    42,'BL',1,   2,   1,   100.000,     0.000,     0.000,     0.000,     0.000,     0.000,   1,1
    43,'BL',1,   1,   1,  2053.000,   907.100,     0.000,     0.000,     0.000,     0.000,   1,1
    44,'BL',1,   1,   1,   100.000,     0.000,     0.000,     0.000,     0.000,     0.000,   1,1
    45,'BL',1,   2,   1,   -72.800,   -17.000,     0.000,     0.000,     0.000,     0.000,   1,1
    46,'BL',1,   2,   1,   100.000,     0.000,     0.000,     0.000,     0.000,     0.000,   1,1
    47,'BL',1,   2,   1,   121.000,    25.000,     0.000,     0.000,     0.000,     0.000,   1,1
    49,'BL',1,   2,   1,   320.000,    65.000,     0.000,     0.000,     0.000,     0.000,   1,1
    50,'BL',1,   2,   1,   237.200,   -63.200,     0.000,     0.000,     0.000,     0.000,   1,1
    53,'BL',1,   2,   1,   138.000,    28.000,     0.000,     0.000,     0.000,     0.000,   1,1
    54,'BL',1,   2,   1,   807.800,   132.100,     0.000,     0.000,     0.000,     0.000,   1,1
    56,'BL',1,   2,   1,   117.000,    24.000,     0.000,     0.000,     0.000,     0.000,   1,1
    57,'BL',1,   2,   1,   121.000,    25.000,     0.000,     0.000,     0.000,     0.000,   1,1
    58,'BL',1,   2,   1,   887.700,    -6.200,     0.000,     0.000,     0.000,     0.000,   1,1
    59,'BL',1,   2,   1, -2771.000,  1654.000,     0.000,     0.000,     0.000,     0.000,   1,1
    60,'BL',1,   2,   1,   401.000,    80.600,     0.000,     0.000,     0.000,     0.000,   1,1
    61,'BL',1,   2,   1,   205.200,    17.600,     0.000,     0.000,     0.000,     0.000,   1,1
    62,'BL',1,   2,   1,  -129.000,    32.200,     0.000,     0.000,     0.000,     0.000,   1,1
    64,'BL',1,   1,   1,   100.000,     0.000,     0.000,     0.000,     0.000,     0.000,   1,1
    65,'BL',1,   1,   1,  1700.000,   300.000,     0.000,     0.000,     0.000,     0.000,   1,1
    66,'BL',1,   1,   1,   160.000,    31.250,     0.000,     0.000,     0.000,     0.000,   1,1
    67,'BL',1,   1,   1,   -67.500,   160.000,     0.000,     0.000,     0.000,     0.000,   1,1
    68,'BL',1,   1,   1,   -44.200,    22.000,     0.000,     0.000,     0.000,     0.000,   1,1
    69,'BL',1,   1,   1,   100.000,     0.000,     0.000,     0.000,     0.000,     0.000,   1,1
    70,'BL',1,   1,   1,  3137.000,  1681.000,     0.000,     0.000,     0.000,     0.000,   1,1
    72,'BL',1,   1,   1, -1525.000,   -50.000,     0.000,     0.000,     0.000,     0.000,   1,1
    74,'BL',1,   1,   1,  2584.000,   394.000,     0.000,     0.000,     0.000,     0.000,   1,1
    75,'BL',1,   1,   1,  3200.000,  1100.000,     0.000,     0.000,     0.000,     0.000,   1,1
    76,'BL',1,   1,   1,   100.000,     0.000,     0.000,     0.000,     0.000,     0.000,   1,1
    77,'BL',1,   1,   1,  3500.000,   500.000,     0.000,     0.000,     0.000,     0.000,   1,1
    78,'BL',1,   1,   1,   100.000,     0.000,     0.000,     0.000,     0.000,     0.000,   1,1
    79,'BL',1,   1,   1,  5000.000,   400.000,     0.000,     0.000,     0.000,     0.000,   1,1
    81,'BL',1,   1,   1,   -66.600,   -97.000,     0.000,     0.000,     0.000,     0.000,   1,1
    82,'BL',1,   1,   1,  -339.000,  -119.000,     0.000,     0.000,     0.000,     0.000,   1,1
    84,'BL',1,   1,   1,   610.000,  -414.000,     0.000,     0.000,     0.000,     0.000,   1,1
    99,'BL',1,   3,   1,   -43.300,    20.000,     0.000,     0.000,     0.000,     0.000,   1,1
   100,'BL',1,   3,   1,   210.400,   -77.000,     0.000,     0.000,     0.000,     0.000,   1,1
   101,'BL',1,   2,   1,    50.000,    25.000,     0.000,     0.000,     0.000,     0.000,   1,1
   102,'BL',1,   2,   1,   100.000,     0.000,     0.000,     0.000,     0.000,     0.000,   1,1
   103,'BL',1,   2,   1,   305.000,    -7.600,     0.000,     0.000,     0.000,     0.000,   1,1
   104,'BL',1,   3,   1,    27.500,    -0.100,     0.000,     0.000,     0.000,     0.000,   1,1
   105,'BL',1,   3,   1,     8.010,     0.000,     0.000,     0.000,     0.000,     0.000,   1,1
   106,'BL',1,   2,   1,   265.000,    14.000,     0.000,     0.000,     0.000,     0.000,   1,1
   107,'BL',1,   2,   1,    55.600,  -329.000,     0.000,     0.000,     0.000,     0.000,   1,1
   108,'BL',1,   2,   1,   777.600,    32.600,     0.000,     0.000,     0.000,     0.000,   1,1
   109,'BL',1,   2,   1,    40.000,    21.500,     0.000,     0.000,     0.000,     0.000,   1,1
   110,'BL',1,   3,   1,  -189.000,    61.500,     0.000,     0.000,     0.000,     0.000,   1,1
   111,'BL',1,   3,   1,   100.000,     0.000,     0.000,     0.000,     0.000,     0.000,   1,1
   112,'BL',1,   3,   1,   148.000,     0.000,     0.000,     0.000,     0.000,     0.000,   1,1
   114,'BL',1,   3,   1,    -0.700,   118.500,     0.000,     0.000,     0.000,     0.000,   1,1
   115,'BL',1,   3,   1,   100.000,     0.000,     0.000,     0.000,     0.000,     0.000,   1,1
   116,'BL',1,   3,   1,   884.000,    54.800,     0.000,     0.000,     0.000,     0.000,   1,1
   117,'BL',1,   3,   1,   100.000,     0.000,     0.000,     0.000,     0.000,     0.000,   1,1
   118,'BL',1,   3,   1,  5661.000,  3491.000,     0.000,     0.000,     0.000,     0.000,   1,1
   135,'BL',1,   2,   1,   856.000,    19.600,     0.000,     0.000,     0.000,     0.000,   1,1
   136,'BL',1,   2,   1,   175.000,    18.000,     0.000,     0.000,     0.000,     0.000,   1,1
   137,'BL',1,   2,   1,   100.000,     0.000,     0.000,     0.000,     0.000,     0.000,   1,1
   138,'BL',1,   2,   1,   902.300,   -11.400,     0.000,     0.000,     0.000,     0.000,   1,1
   139,'BL',1,   2,   1,   100.000,     0.000,     0.000,     0.000,     0.000,     0.000,   1,1
   140,'BL',1,   2,   1,  3191.000,   630.000,     0.000,     0.000,     0.000,     0.000,   1,1
   141,'BL',1,   2,   1,   204.200,   -28.200,     0.000,     0.000,     0.000,     0.000,   1,1
   142,'BL',1,   2,   1,   377.400,    64.500,     0.000,     0.000,     0.000,     0.000,   1,1
   143,'BL',1,   2,   1,   100.000,     0.000,     0.000,     0.000,     0.000,     0.000,   1,1
   144,'BL',1,   2,   1,  3098.000,  1189.000,     0.000,     0.000,     0.000,     0.000,   1,1
   147,'BL',1,   2,   1,   100.000,     0.000,     0.000,     0.000,     0.000,     0.000,   1,1
   148,'BL',1,   2,   1,   100.000,     0.000,     0.000,     0.000,     0.000,     0.000,   1,1
   149,'BL',1,   2,   1,  3118.000,    78.000,     0.000,     0.000,     0.000,     0.000,   1,1
   150,'BL',1,   2,   1,  1230.000,    72.800,     0.000,     0.000,     0.000,     0.000,   1,1
   151,'BL',1,   2,   1,   406.000,    41.000,     0.000,     0.000,     0.000,     0.000,   1,1
   153,'BL',1,   2,   1,  1066.000,   -10.800,     0.000,     0.000,     0.000,     0.000,   1,1
   154,'BL',1,   1,   1,   457.700,    81.700,     0.000,     0.000,     0.000,     0.000,   1,1
   155,'BL',1,   1,   1,    33.900,    11.900,     0.000,     0.000,     0.000,     0.000,   1,1
   156,'BL',1,   1,   1,   148.000,    -7.900,     0.000,     0.000,     0.000,     0.000,   1,1
   157,'BL',1,   1,   1,   116.100,    38.400,     0.000,     0.000,     0.000,     0.000,   1,1
   158,'BL',1,   1,   1,   100.000,     0.000,     0.000,     0.000,     0.000,     0.000,   1,1
   159,'BL',1,   1,   1,   -62.000,    12.800,     0.000,     0.000,     0.000,     0.000,   1,1
   160,'BL',1,   1,   1,   255.000,   100.000,     0.000,     0.000,     0.000,     0.000,   1,1
   161,'BL',1,   1,   1,   100.000,     0.000,     0.000,     0.000,     0.000,     0.000,   1,1
   163,'BL',1,   1,   1,    31.600,    11.500,     0.000,     0.000,     0.000,     0.000,   1,1
   164,'BL',1,   1,   1,   141.200,    71.400,     0.000,     0.000,     0.000,     0.000,   1,1
   165,'BL',1,   1,   1,   379.000,   -43.000,     0.000,     0.000,     0.000,     0.000,   1,1
   166,'BL',1,   1,   1,   185.000,    78.500,     0.000,     0.000,     0.000,     0.000,   1,1
 0 /End of Load data, Begin Fixed shunt data
     6,'1 ',1,     0.000,  -113.000
     7,'1 ',1,     0.000,  -155.000
    11,'1 ',1,     0.000,  -190.000
    13,'1 ',1,     0.000,  -391.000
    15,'1 ',1,     0.000,  -146.000
    16,'1 ',1,     0.000,   390.000
    18,'1 ',1,     0.000,  -427.000
    36,'1 ',1,     0.000,   912.000
    43,'1 ',1,     0.000,   430.000
    48,'1 ',1,     0.000,   -80.000
    59,'1 ',1,     0.000,  2146.000
    62,'1 ',1,     0.000,  -108.000
    67,'1 ',1,     0.000,   576.850
    70,'1 ',1,     0.000,   792.000
    71,'1 ',1,     0.000,   462.000
    75,'1 ',1,     0.000,  1019.350
    77,'1 ',1,     0.000,   550.000
    79,'1 ',1,     0.000,  1200.000
    80,'1 ',1,     0.000,  -220.000
    81,'1 ',1,     0.000,  -674.000
    82,'1 ',1,     0.000,  -110.000
    83,'1 ',1,     0.000,  -220.000
    84,'1 ',1,     0.000,  -870.000
   103,'1 ',1,     0.000,   -91.000
   107,'1 ',1,     0.000,  -327.000
   108,'1 ',1,     0.000,  -130.000
   112,'1 ',1,     0.000,  -128.000
   113,'1 ',1,     0.000,   -91.000
   114,'1 ',1,     0.000,   -91.000
   116,'1 ',1,     0.000,   -32.000
   118,'1 ',1,     0.000,  1500.000
   138,'1 ',1,     0.000,  -319.000
   144,'1 ',1,     0.000,   400.000
   146,'1 ',1,     0.000,  -196.000
   153,'1 ',1,     0.000,  -190.000
   154,'1 ',1,     0.000,   -60.000
   157,'1 ',1,     0.000,  -220.000
   163,'1 ',1,     0.000,   -18.000
   165,'1 ',1,     0.000,   -50.000
   179,'1 ',1,     0.000,  -220.000
 0 /End of Fixed shunt data, Begin Generator data
     3,'1 ',   800.000,   123.043,   300.000,  -300.000,1.04000,     0,  1600.000, 0.00000E+0, 2.50000E-1, 0.00000E+0, 0.00000E+0,1.00000,1,  100.0,  9999.000,     0.000,   1,1.0000
     5,'1 ',  1048.000,  -132.905,   400.000,  -400.000,0.95000,     0,  2100.000, 0.00000E+0, 2.50000E-1, 0.00000E+0, 0.00000E+0,1.00000,1,  100.0,  9999.000,     0.000,   1,1.0000
     8,'1 ',  2160.000,   -30.469,   700.000,  -500.000,1.00000,     0,  4300.000, 0.00000E+0, 2.50000E-1, 0.00000E+0, 0.00000E+0,1.00000,1,  100.0,  9999.000,     0.000,   1,1.0000
    10,'1 ',  2050.000,   464.829,   900.000,  -900.000,1.00000,     0,  4100.000, 0.00000E+0, 2.50000E-1, 0.00000E+0, 0.00000E+0,1.00000,1,  100.0,  9999.000,     0.000,   1,1.0000
    12,'1 ',  1690.000,   195.571,   700.000,  -280.000,1.00000,     0,  3400.000, 0.00000E+0, 2.50000E-1, 0.00000E+0, 0.00000E+0,1.00000,1,  100.0,  9999.000,     0.000,   1,1.0000
    14,'1 ',  2640.000,   378.080,  1300.000,  -900.000,0.96000,     0,  5300.000, 0.00000E+0, 2.50000E-1, 0.00000E+0, 0.00000E+0,1.00000,1,  100.0,  9999.000,     0.000,   1,1.0000
    17,'1 ',   962.000,   148.778,   300.000,  -300.000,1.00000,     0,  2000.000, 0.00000E+0, 2.50000E-1, 0.00000E+0, 0.00000E+0,1.00000,1,  100.0,  9999.000,     0.000,   1,1.0000
    29,'1 ',  4450.000,  1011.075,  4000.000, -4000.000,1.00000,     0,  8900.000, 0.00000E+0, 2.50000E-1, 0.00000E+0, 0.00000E+0,1.00000,1,  100.0,  9999.000,     0.000,   1,1.0000
    34,'1 ',  4480.000,  1150.177,  5320.000, -3500.000,1.02000,     0,  9000.000, 0.00000E+0, 2.50000E-1, 0.00000E+0, 0.00000E+0,1.00000,1,  100.0,  9999.000,     0.000,   1,1.0000
    35,'1 ',  1640.000,   285.666,   600.000,  -525.000,1.00900,     0,  3300.000, 0.00000E+0, 2.50000E-1, 0.00000E+0, 0.00000E+0,1.00000,1,  100.0,  9999.000,     0.000,   1,1.0000
    39,'1 ',   200.000,   -52.159,   268.000,  -134.000,1.02000,     0,   400.000, 0.00000E+0, 2.50000E-1, 0.00000E+0, 0.00000E+0,1.00000,1,  100.0,  9999.000,     0.000,   1,1.0000
    42,'1 ',   325.000,    68.266,   300.000,  -220.000,1.00000,     0,   650.000, 0.00000E+0, 2.50000E-1, 0.00000E+0, 0.00000E+0,1.00000,1,  100.0,  9999.000,     0.000,   1,1.0000
    44,'1 ',  1780.000,   534.593,   850.000,  -440.000,1.05000,     0,  3600.000, 0.00000E+0, 2.50000E-1, 0.00000E+0, 0.00000E+0,1.00000,1,  100.0,  9999.000,     0.000,   1,1.0000
    46,'1 ',   110.000,    29.078,   100.000,  -100.000,1.02000,     0,   220.000, 0.00000E+0, 2.50000E-1, 0.00000E+0, 0.00000E+0,1.00000,1,  100.0,  9999.000,     0.000,   1,1.0000
    64,'1 ',  2910.000,   953.299,  1500.000, -1000.000,1.00000,     0,  5800.000, 0.00000E+0, 2.50000E-1, 0.00000E+0, 0.00000E+0,1.00000,1,  100.0,  9999.000,     0.000,   1,1.0000
    69,'1 ',  1301.000,   431.493,   692.000,  -711.000,1.05500,     0,  2600.000, 0.00000E+0, 2.50000E-1, 0.00000E+0, 0.00000E+0,1.00000,1,  100.0,  9999.000,     0.000,   1,1.0000
    76,'1 ',  5174.765,   855.276,  2649.000, -1850.000,1.00000,     0, 10400.000, 0.00000E+0, 2.50000E-1, 0.00000E+0, 0.00000E+0,1.00000,1,  100.0,  9999.000,     0.000,   1,1.0000
    78,'1 ',  9950.000,  1854.073,  5780.000, -2000.000,1.00000,     0, 20000.000, 0.00000E+0, 2.50000E-1, 0.00000E+0, 0.00000E+0,1.00000,1,  100.0,  9999.000,     0.000,   1,1.0000
   102,'1 ',   765.000,  -206.264,   330.000,  -310.000,0.98000,     0,  1500.000, 0.00000E+0, 2.50000E-1, 0.00000E+0, 0.00000E+0,1.00000,1,  100.0,  9999.000,     0.000,   1,1.0000
   111,'1 ',  1057.000,    25.675,   400.000,  -400.000,1.02000,     0,  2100.000, 0.00000E+0, 2.50000E-1, 0.00000E+0, 0.00000E+0,1.00000,1,  100.0,  9999.000,     0.000,   1,1.0000
   115,'1 ',   594.000,   192.348,   300.000,  -300.000,1.05000,     0,  1200.000, 0.00000E+0, 2.50000E-1, 0.00000E+0, 0.00000E+0,1.00000,1,  100.0,  9999.000,     0.000,   1,1.0000
   117,'1 ',  3467.000,  1654.420,  2500.000, -1000.000,1.00000,     0,  6900.000, 0.00000E+0, 2.50000E-1, 0.00000E+0, 0.00000E+0,1.00000,1,  100.0,  9999.000,     0.000,   1,1.0000
   137,'1 ',   982.700,  -128.764,   300.000,  -300.000,1.02000,     0,  2000.000, 0.00000E+0, 2.50000E-1, 0.00000E+0, 0.00000E+0,1.00000,1,  100.0,  9999.000,     0.000,   1,1.0000
   139,'1 ',  3195.000,  1032.512,  2000.000,  -900.000,1.02000,     0,  6400.000, 0.00000E+0, 2.50000E-1, 0.00000E+0, 0.00000E+0,1.00000,1,  100.0,  9999.000,     0.000,   1,1.0000
   143,'1 ',  1690.000,   593.821,   900.000,  -400.000,1.05000,     0,  3400.000, 0.00000E+0, 2.50000E-1, 0.00000E+0, 0.00000E+0,1.00000,1,  100.0,  9999.000,     0.000,   1,1.0000
   147,'1 ',  1680.000,   446.627,   700.000,  -300.000,1.05000,     0,  3400.000, 0.00000E+0, 2.50000E-1, 0.00000E+0, 0.00000E+0,1.00000,1,  100.0,  9999.000,     0.000,   1,1.0000
   148,'1 ',  2200.000,   393.721,   600.000,  -600.000,1.01000,     0,  4400.000, 0.00000E+0, 2.50000E-1, 0.00000E+0, 0.00000E+0,1.00000,1,  100.0,  9999.000,     0.000,   1,1.0000
   158,'1 ',  1665.000,   -31.368,  9999.000, -9999.000,1.05000,     0,  3300.000, 0.00000E+0, 2.50000E-1, 0.00000E+0, 0.00000E+0,1.00000,1,  100.0,  9999.000,     0.000,   1,1.0000
   161,'1 ',   445.000,    91.733,  9999.000, -9999.000,1.00000,     0,   900.000, 0.00000E+0, 2.50000E-1, 0.00000E+0, 0.00000E+0,1.00000,1,  100.0,  9999.000,     0.000,   1,1.0000
 0 /End of Generator data, Begin Branch data
     2,      7,'1 ', 1.79000E-3, 1.98800E-2,   2.57600,    0.00,    0.00,    0.00,  0.00000,  0.00000,  0.00000,  0.00000,1,1,   0.00,   1,1.0000
     4,     16,'1 ', 9.77000E-3, 1.10000E-1,   2.00000,    0.00,    0.00,    0.00,  0.00000,  0.00000,  0.00000,  0.00000,1,2,   0.00,   1,1.0000
     4,    159,'1 ', 8.11000E-3, 1.36900E-1,   2.43480,    0.00,    0.00,    0.00,  0.00000,  0.00000,  0.00000,  0.00000,1,1,   0.00,   1,1.0000
     6,     27,'1 ',-0.00000E+0,-4.08000E-3,   0.00000,    0.00,    0.00,    0.00,  0.00000,  0.00000,  0.00000,  0.00000,1,1,   0.00,   1,1.0000
     7,     16,'1 ', 5.00000E-4, 5.30000E-3,   0.08820,    0.00,    0.00,    0.00,  0.00000,  0.00000,  0.00000,  0.00000,1,1,   0.00,   1,1.0000
     7,    162,'1 ', 4.80000E-3, 4.36000E-2,   0.70780,    0.00,    0.00,    0.00,  0.00000,  0.00000,  0.00000,  0.00000,1,2,   0.00,   1,1.0000
    11,     19,'1 ',-0.00000E+0,-6.34000E-3,   0.00000,    0.00,    0.00,    0.00,  0.00000,  0.00000,  0.00000,  0.00000,1,1,   0.00,   1,1.0000
    11,     21,'1 ',-0.00000E+0,-1.18800E-2,   0.00000,    0.00,    0.00,    0.00,  0.00000,  0.00000,  0.00000,  0.00000,1,1,   0.00,   1,1.0000
    11,    138,'1 ', 2.80000E-3, 2.11000E-2,   1.01940,    0.00,    0.00, 1630.00,  0.00000,  0.00000,  0.00000,  0.00000,1,1,   0.00,   1,1.0000
    13,     20,'1 ',-0.00000E+0,-6.34000E-3,   0.00000,    0.00,    0.00,    0.00,  0.00000,  0.00000,  0.00000,  0.00000,1,2,   0.00,   1,1.0000
    13,     23,'1 ',-0.00000E+0,-8.26000E-3,   0.00000,    0.00,    0.00,    0.00,  0.00000,  0.00000,  0.00000,  0.00000,1,1,   0.00,   1,1.0000
    13,     25,'1 ',-0.00000E+0,-1.79500E-2,   0.00000,    0.00,    0.00,    0.00,  0.00000,  0.00000,  0.00000,  0.00000,1,1,   0.00,   1,1.0000
    13,     28,'1 ',-0.00000E+0,-6.12000E-3,   0.00000,    0.00,    0.00,    0.00,  0.00000,  0.00000,  0.00000,  0.00000,1,2,   0.00,   1,1.0000
    15,     18,'1 ', 4.00000E-4, 9.60000E-3,   0.90380,    0.00,    0.00,    0.00,  0.00000,  0.00000,  0.00000,  0.00000,1,1,   0.00,   1,1.0000
    15,     18,'2 ', 4.00000E-4, 9.60000E-3,   0.90380,    0.00,    0.00,    0.00,  0.00000,  0.00000,  0.00000,  0.00000,1,1,   0.00,   1,1.0000
    15,    135,'1 ', 2.59000E-3, 2.96700E-2,   2.15300,    0.00,    0.00, 1800.00,  0.00000,  0.00000,  0.00000,  0.00000,1,1,   0.00,   1,1.0000
    15,    135,'2 ', 2.59000E-3, 2.96700E-2,   2.15300,    0.00,    0.00, 1800.00,  0.00000,  0.00000,  0.00000,  0.00000,1,1,   0.00,   1,1.0000
    18,     22,'1 ',-0.00000E+0,-1.18800E-2,   0.00000,    0.00,    0.00,    0.00,  0.00000,  0.00000,  0.00000,  0.00000,1,2,   0.00,   1,1.0000
    18,     24,'1 ',-0.00000E+0,-8.26000E-3,   0.00000,    0.00,    0.00,    0.00,  0.00000,  0.00000,  0.00000,  0.00000,1,2,   0.00,   1,1.0000
    19,     20,'1 ', 7.70000E-4, 1.80400E-2,   1.39842,    0.00,    0.00,    0.00,  0.00000,  0.00000,  0.00000,  0.00000,1,1,   0.00,   1,1.0000
    21,     22,'1 ', 2.41000E-3, 5.86500E-2,   4.86560,    0.00,    0.00,    0.00,  0.00000,  0.00000,  0.00000,  0.00000,1,1,   0.00,   1,1.0000
    23,     24,'1 ', 1.79000E-3, 4.24400E-2,   3.39220,    0.00,    0.00,    0.00,  0.00000,  0.00000,  0.00000,  0.00000,1,1,   0.00,   1,1.0000
    25,     26,'1 ', 2.07000E-3, 4.95900E-2,   3.95160,    0.00,    0.00,    0.00,  0.00000,  0.00000,  0.00000,  0.00000,1,1,   0.00,   1,1.0000
    26,    138,'1 ',-0.00000E+0,-1.79500E-2,   0.00000,    0.00,    0.00,    0.00,  0.00000,  0.00000,  0.00000,  0.00000,1,1,   0.00,   1,1.0000
    27,     28,'1 ', 1.77000E-3, 4.18900E-2,   3.34460,    0.00,    0.00,    0.00,  0.00000,  0.00000,  0.00000,  0.00000,1,1,   0.00,   1,1.0000
    30,     31,'1 ', 3.50000E-3, 7.00000E-2,   4.60600,    0.00,    0.00,    0.00,  0.00000,  0.00000,  0.00000,  0.00000,1,1,   0.00,   1,1.0000
    30,     79,'1 ', 8.30000E-4, 2.39000E-2,   3.30000,    0.00,    0.00,    0.00,  0.00000,  0.00000,  0.00000,  0.00000,1,1,   0.00,   1,1.0000
    32,     33,'1 ', 2.00000E-3, 2.00000E-2,   0.80000,    0.00,    0.00,    0.00,  0.00000,  0.00000,  0.00000,  0.00000,1,1,   0.00,   1,1.0000
    36,     37,'1 ', 7.40000E-4, 1.86100E-2,   1.40264,    0.00,    0.00,    0.00,  0.00000,  0.00000,  0.00000,  0.00000,1,1,   0.00,   1,1.0000
    36,     55,'1 ', 8.20000E-4, 1.66800E-2,   1.18802,    0.00,    0.00,    0.00,  0.00000,  0.00000,  0.00000,  0.00000,1,1,   0.00,   1,1.0000
    36,     63,'1 ',-0.00000E+0, 1.59000E-3,   0.12002,    0.00,    0.00,    0.00,  0.00000,  0.00000,  0.00000,  0.00000,1,1,   0.00,   1,1.0000
    36,     63,'2 ',-0.00000E+0, 1.59000E-3,   0.12002,    0.00,    0.00,    0.00,  0.00000,  0.00000,  0.00000,  0.00000,1,1,   0.00,   1,1.0000
    38,     45,'1 ', 2.21000E-3, 3.34600E-2,   0.07338,    0.00,    0.00,    0.00,  0.00000,  0.00000,  0.00000,  0.00000,1,1,   0.00,   1,1.0000
    38,     47,'1 ', 2.90000E-3, 3.80000E-2,   0.08240,    0.00,    0.00,    0.00,  0.00000,  0.00000,  0.00000,  0.00000,1,1,   0.00,   1,1.0000
    38,     58,'1 ', 3.09000E-3, 4.67700E-2,   0.10080,    0.00,    0.00,    0.00,  0.00000,  0.00000,  0.00000,  0.00000,1,1,   0.00,   1,1.0000
    38,     59,'1 ', 2.26000E-3, 3.42200E-2,   0.07506,    0.00,    0.00,    0.00,  0.00000,  0.00000,  0.00000,  0.00000,1,1,   0.00,   1,1.0000
    40,     54,'1 ', 4.70000E-4, 7.23000E-3,   0.01624,    0.00,    0.00,    0.00,  0.00000,  0.00000,  0.00000,  0.00000,1,2,   0.00,   1,1.0000
    40,     57,'1 ', 3.50000E-4, 5.36000E-3,   0.01204,    0.00,    0.00,    0.00,  0.00000,  0.00000,  0.00000,  0.00000,1,1,   0.00,   1,1.0000
    41,     49,'1 ', 2.20000E-3, 3.42200E-2,   0.07716,    0.00,    0.00,    0.00,  0.00000,  0.00000,  0.00000,  0.00000,1,2,   0.00,   1,1.0000
    41,     49,'2 ', 2.38000E-3, 3.66900E-2,   0.08284,    0.00,    0.00,    0.00,  0.00000,  0.00000,  0.00000,  0.00000,1,2,   0.00,   1,1.0000
    41,     56,'1 ', 2.01000E-3, 3.07400E-2,   0.06886,    0.00,    0.00,    0.00,  0.00000,  0.00000,  0.00000,  0.00000,1,2,   0.00,   1,1.0000
    41,     57,'1 ', 2.81000E-3, 4.29600E-2,   0.09648,    0.00,    0.00,    0.00,  0.00000,  0.00000,  0.00000,  0.00000,1,1,   0.00,   1,1.0000
    43,    159,'1 ', 1.80000E-3, 2.45000E-2,   0.43920,    0.00,    0.00,    0.00,  0.00000,  0.00000,  0.00000,  0.00000,1,1,   0.00,   1,1.0000
    43,    159,'2 ', 1.80000E-3, 2.45000E-2,   0.43920,    0.00,    0.00,    0.00,  0.00000,  0.00000,  0.00000,  0.00000,1,1,   0.00,   1,1.0000
    45,     47,'1 ', 2.90000E-4, 4.34000E-3,   0.00950,    0.00,    0.00,    0.00,  0.00000,  0.00000,  0.00000,  0.00000,1,2,   0.00,   1,1.0000
    47,     54,'1 ', 2.29000E-3, 1.58300E-2,   0.03060,    0.00,    0.00,    0.00,  0.00000,  0.00000,  0.00000,  0.00000,1,1,   0.00,   1,1.0000
    47,     54,'2 ', 2.29000E-3, 1.58300E-2,   0.03060,    0.00,    0.00,    0.00,  0.00000,  0.00000,  0.00000,  0.00000,1,1,   0.00,   1,1.0000
    47,     58,'1 ', 1.41000E-3, 9.67000E-3,   0.01940,    0.00,    0.00,    0.00,  0.00000,  0.00000,  0.00000,  0.00000,1,1,   0.00,   1,1.0000
    47,     58,'2 ', 1.41000E-3, 9.67000E-3,   0.01940,    0.00,    0.00,    0.00,  0.00000,  0.00000,  0.00000,  0.00000,1,1,   0.00,   1,1.0000
    47,     58,'3 ', 1.61000E-3, 9.71000E-3,   0.01928,    0.00,    0.00,    0.00,  0.00000,  0.00000,  0.00000,  0.00000,1,1,   0.00,   1,1.0000
    47,     58,'4 ', 1.61000E-3, 9.71000E-3,   0.01928,    0.00,    0.00,    0.00,  0.00000,  0.00000,  0.00000,  0.00000,1,1,   0.00,   1,1.0000
    47,     59,'1 ', 2.70000E-4, 3.93000E-3,   0.00918,    0.00,    0.00,    0.00,  0.00000,  0.00000,  0.00000,  0.00000,1,1,   0.00,   1,1.0000
    47,     59,'2 ', 2.70000E-4, 3.93000E-3,   0.00918,    0.00,    0.00,    0.00,  0.00000,  0.00000,  0.00000,  0.00000,1,1,   0.00,   1,1.0000
    47,     59,'3 ', 2.70000E-4, 3.93000E-3,   0.00918,    0.00,    0.00,    0.00,  0.00000,  0.00000,  0.00000,  0.00000,1,1,   0.00,   1,1.0000
    47,     61,'1 ', 1.38000E-3, 1.11600E-2,   0.02470,    0.00,    0.00,    0.00,  0.00000,  0.00000,  0.00000,  0.00000,1,1,   0.00,   1,1.0000
    47,     61,'2 ', 1.38000E-3, 1.11600E-2,   0.02470,    0.00,    0.00,    0.00,  0.00000,  0.00000,  0.00000,  0.00000,1,1,   0.00,   1,1.0000
    48,     63,'1 ', 8.30000E-4, 1.88400E-2,   1.66668,    0.00,    0.00,    0.00,  0.00000,  0.00000,  0.00000,  0.00000,1,2,   0.00,   1,1.0000
    49,     56,'1 ', 3.70000E-4, 3.66000E-3,   0.00830,    0.00,    0.00,    0.00,  0.00000,  0.00000,  0.00000,  0.00000,1,1,   0.00,   1,1.0000
    49,     57,'1 ', 5.50000E-4, 5.86000E-3,   0.01246,    0.00,    0.00,    0.00,  0.00000,  0.00000,  0.00000,  0.00000,1,1,   0.00,   1,1.0000
    51,     62,'1 ', 1.07000E-2, 7.90500E-2,   0.36670,    0.00,    0.00,    0.00,  0.00000,  0.00000,  0.00000,  0.00000,1,1,   0.00,   1,1.0000
    52,     62,'1 ', 1.07000E-2, 7.90500E-2,   0.36670,    0.00,    0.00,    0.00,  0.00000,  0.00000,  0.00000,  0.00000,1,1,   0.00,   1,1.0000
    53,     56,'1 ', 7.30000E-4, 1.02500E-2,   0.02558,    0.00,    0.00,    0.00,  0.00000,  0.00000,  0.00000,  0.00000,1,2,   0.00,   1,1.0000
    53,     56,'2 ', 7.30000E-4, 1.02500E-2,   0.02558,    0.00,    0.00,    0.00,  0.00000,  0.00000,  0.00000,  0.00000,1,2,   0.00,   1,1.0000
    54,     57,'1 ', 1.19000E-3, 1.24400E-2,   0.02798,    0.00,    0.00,    0.00,  0.00000,  0.00000,  0.00000,  0.00000,1,1,   0.00,   1,1.0000
    54,     57,'2 ', 1.19000E-3, 1.24400E-2,   0.02798,    0.00,    0.00,    0.00,  0.00000,  0.00000,  0.00000,  0.00000,1,1,   0.00,   1,1.0000
    54,     61,'1 ', 1.28000E-3, 9.79000E-3,   0.02120,    0.00,    0.00,    0.00,  0.00000,  0.00000,  0.00000,  0.00000,1,2,   0.00,   1,1.0000
    56,     57,'1 ', 1.10000E-3, 1.18900E-2,   0.02514,    0.00,    0.00,    0.00,  0.00000,  0.00000,  0.00000,  0.00000,1,1,   0.00,   1,1.0000
    60,    136,'1 ', 1.40000E-3, 2.64000E-2,   0.10200,    0.00,    0.00, 3070.00,  0.00000,  0.00000,  0.00000,  0.00000,1,2,   0.00,   1,1.0000
    60,    149,'1 ', 6.50000E-4, 1.18700E-2,   0.04672,    0.00,    0.00, 3070.00,  0.00000,  0.00000,  0.00000,  0.00000,1,2,   0.00,   1,1.0000
    60,    149,'2 ', 6.50000E-4, 1.18700E-2,   0.04672,    0.00,    0.00, 3070.00,  0.00000,  0.00000,  0.00000,  0.00000,1,2,   0.00,   1,1.0000
    63,    138,'1 ', 1.79000E-3, 2.52400E-2,   0.53546,    0.00,    0.00,    0.00,  0.00000,  0.00000,  0.00000,  0.00000,1,2,   0.00,   1,1.0000
    63,    138,'2 ', 1.79000E-3, 2.52400E-2,   0.53546,    0.00,    0.00,    0.00,  0.00000,  0.00000,  0.00000,  0.00000,1,2,   0.00,   1,1.0000
    63,    141,'1 ', 2.00000E-4, 4.10000E-3,   0.29620,    0.00,    0.00,    0.00,  0.00000,  0.00000,  0.00000,  0.00000,1,2,   0.00,   1,1.0000
    65,     77,'1 ', 7.00000E-4, 7.40000E-2,   4.87000,    0.00,    0.00,    0.00,  0.00000,  0.00000,  0.00000,  0.00000,1,2,   0.00,   1,1.0000
    67,     70,'1 ', 6.00000E-5, 1.31000E-3,   0.00378,    0.00,    0.00, 3020.00,  0.00000,  0.00000,  0.00000,  0.00000,1,1,   0.00,   1,1.0000
    67,     70,'2 ', 6.00000E-5, 1.16000E-3,   0.00332,    0.00,    0.00, 3020.00,  0.00000,  0.00000,  0.00000,  0.00000,1,1,   0.00,   1,1.0000
    68,     71,'1 ', 1.00000E-5, 3.00000E-4,   0.01434,    0.00,    0.00, 3450.00,  0.00000,  0.00000,  0.00000,  0.00000,1,1,   0.00,   1,1.0000
    68,     71,'2 ', 1.00000E-5, 3.00000E-4,   0.01844,    0.00,    0.00, 3450.00,  0.00000,  0.00000,  0.00000,  0.00000,1,1,   0.00,   1,1.0000
    68,     75,'1 ', 2.30000E-4, 4.51000E-3,   0.33320,    0.00,    0.00, 2175.00,  0.00000,  0.00000,  0.00000,  0.00000,1,1,   0.00,   1,1.0000
    68,     75,'2 ', 2.00000E-4, 4.46000E-3,   0.30500,    0.00,    0.00, 2175.00,  0.00000,  0.00000,  0.00000,  0.00000,1,1,   0.00,   1,1.0000
    72,     74,'1 ', 1.79000E-3, 1.40500E-2,   3.68000,    0.00,    0.00,    0.00,  0.00000,  0.00000,  0.00000,  0.00000,1,2,   0.00,   1,1.0000
    73,     77,'1 ', 1.13000E-3, 2.06900E-2,   1.85526,    0.00,    0.00,    0.00,  0.00000,  0.00000,  0.00000,  0.00000,1,2,   0.00,   1,1.0000
    74,     75,'1 ', 1.96000E-3, 3.30400E-2,   1.88000,    0.00,    0.00,    0.00,  0.00000,  0.00000,  0.00000,  0.00000,1,1,   0.00,   1,1.0000
    74,     77,'1 ', 1.42000E-3, 2.25800E-2,   1.88000,    0.00,    0.00,    0.00,  0.00000,  0.00000,  0.00000,  0.00000,1,1,   0.00,   1,1.0000
    75,     77,'1 ', 1.20000E-3, 2.31600E-2,   1.71520,    0.00,    0.00,    0.00,  0.00000,  0.00000,  0.00000,  0.00000,1,2,   0.00,   1,1.0000
    75,     77,'2 ', 3.00000E-4, 2.00000E-2,   3.60000,    0.00,    0.00,    0.00,  0.00000,  0.00000,  0.00000,  0.00000,1,2,   0.00,   1,1.0000
    75,     81,'1 ', 6.30000E-4, 1.41200E-2,   1.09756,    0.00,    0.00, 3450.00,  0.00000,  0.00000,  0.00000,  0.00000,1,2,   0.00,   1,1.0000
    75,     81,'2 ', 1.09000E-3, 2.40800E-2,   1.55542,    0.00,    0.00, 3020.00,  0.00000,  0.00000,  0.00000,  0.00000,1,2,   0.00,   1,1.0000
    75,     81,'3 ', 1.08000E-3, 2.40900E-2,   1.55348,    0.00,    0.00, 3020.00,  0.00000,  0.00000,  0.00000,  0.00000,1,2,   0.00,   1,1.0000
    77,     79,'1 ', 2.00000E-4, 8.20000E-3,   1.30000,    0.00,    0.00,    0.00,  0.00000,  0.00000,  0.00000,  0.00000,1,2,   0.00,   1,1.0000
    77,     79,'2 ', 2.00000E-4, 8.20000E-3,   1.30000,    0.00,    0.00,    0.00,  0.00000,  0.00000,  0.00000,  0.00000,1,2,   0.00,   1,1.0000
    80,     98,'1 ', 2.64000E-3, 5.35600E-2,   5.29066,    0.00,    0.00, 3600.00,  0.00000,  0.00000,  0.00000,  0.00000,1,1,   0.00,   1,1.0000
    80,    179,'1 ',-0.00000E+0,-2.66700E-2,   0.00000,    0.00,    0.00, 1732.00,  0.00000,  0.00000,  0.00000,  0.00000,1,1,   0.00,   1,1.0000
    81,     86,'1 ', 4.10000E-4, 7.37000E-3,   0.72694,    0.00,    0.00, 3450.00,  0.00000,  0.00000,  0.00000,  0.00000,1,1,   0.00,   1,1.0000
    81,     90,'1 ', 6.60000E-4, 1.26600E-2,   0.95976,    0.00,    0.00, 3020.00,  0.00000,  0.00000,  0.00000,  0.00000,1,1,   0.00,   1,1.0000
    81,     94,'1 ', 6.60000E-4, 1.26600E-2,   0.95976,    0.00,    0.00, 3020.00,  0.00000,  0.00000,  0.00000,  0.00000,1,1,   0.00,   1,1.0000
    82,     88,'1 ', 7.20000E-4, 1.38200E-2,   1.27572,    0.00,    0.00, 3600.00,  0.00000,  0.00000,  0.00000,  0.00000,1,1,   0.00,   1,1.0000
    82,     93,'1 ', 7.80000E-4, 1.50200E-2,   1.13810,    0.00,    0.00, 3020.00,  0.00000,  0.00000,  0.00000,  0.00000,1,2,   0.00,   1,1.0000
    82,     97,'1 ', 7.40000E-4, 1.41300E-2,   1.06634,    0.00,    0.00, 3020.00,  0.00000,  0.00000,  0.00000,  0.00000,1,2,   0.00,   1,1.0000
    82,    167,'1 ',-0.00000E+0,-7.20000E-3,   0.00000,    0.00,    0.00, 1800.00,  0.00000,  0.00000,  0.00000,  0.00000,1,1,   0.00,   1,1.0000
    82,    169,'1 ',-0.00000E+0,-8.64000E-3,   0.00000,    0.00,    0.00, 1800.00,  0.00000,  0.00000,  0.00000,  0.00000,1,1,   0.00,   1,1.0000
    82,    171,'1 ',-0.00000E+0,-1.00000E-2,   0.00000,    0.00,    0.00,    0.00,  0.00000,  0.00000,  0.00000,  0.00000,1,1,   0.00,   1,1.0000
    83,     98,'1 ',-0.00000E+0,-2.66700E-2,   0.00000,    0.00,    0.00, 1732.00,  0.00000,  0.00000,  0.00000,  0.00000,1,2,   0.00,   1,1.0000
    84,    155,'1 ', 6.20000E-3, 6.73000E-2,   1.11560,    0.00,    0.00,    0.00,  0.00000,  0.00000,  0.00000,  0.00000,1,2,   0.00,   1,1.0000
    85,     87,'1 ', 6.00000E-4, 1.03600E-2,   1.01456,    0.00,    0.00, 3450.00,  0.00000,  0.00000,  0.00000,  0.00000,1,2,   0.00,   1,1.0000
    85,     89,'1 ', 1.20000E-4, 2.38000E-3,   0.21926,    0.00,    0.00, 3600.00,  0.00000,  0.00000,  0.00000,  0.00000,1,2,   0.00,   1,1.0000
    85,    179,'1 ', 1.22000E-3, 2.37300E-2,   2.20710,    0.00,    0.00, 3600.00,  0.00000,  0.00000,  0.00000,  0.00000,1,2,   0.00,   1,1.0000
    86,     87,'1 ',-0.00000E+0,-1.26300E-2,   0.00000,    0.00,    0.00, 2000.00,  0.00000,  0.00000,  0.00000,  0.00000,1,1,   0.00,   1,1.0000
    88,     89,'1 ',-0.00000E+0,-8.58000E-3,   0.00000,    0.00,    0.00, 2000.00,  0.00000,  0.00000,  0.00000,  0.00000,1,1,   0.00,   1,1.0000
    90,     91,'1 ',-0.00000E+0,-1.26300E-2,   0.00000,    0.00,    0.00, 2400.00,  0.00000,  0.00000,  0.00000,  0.00000,1,1,   0.00,   1,1.0000
    91,     92,'1 ', 7.40000E-4, 1.42800E-2,   1.08220,    0.00,    0.00, 3020.00,  0.00000,  0.00000,  0.00000,  0.00000,1,1,   0.00,   1,1.0000
    92,     93,'1 ',-0.00000E+0,-1.26300E-2,   0.00000,    0.00,    0.00, 2400.00,  0.00000,  0.00000,  0.00000,  0.00000,1,1,   0.00,   1,1.0000
    94,     95,'1 ',-0.00000E+0,-1.26300E-2,   0.00000,    0.00,    0.00, 2000.00,  0.00000,  0.00000,  0.00000,  0.00000,1,1,   0.00,   1,1.0000
    95,     96,'1 ', 7.40000E-4, 1.42800E-2,   1.08220,    0.00,    0.00, 3020.00,  0.00000,  0.00000,  0.00000,  0.00000,1,1,   0.00,   1,1.0000
    96,     97,'1 ',-0.00000E+0,-1.26300E-2,   0.00000,    0.00,    0.00, 2000.00,  0.00000,  0.00000,  0.00000,  0.00000,1,1,   0.00,   1,1.0000
    99,    100,'1 ', 2.48200E-2, 1.69380E-1,   0.20232,    0.00,    0.00,  838.00,  0.00000,  0.00000,  0.00000,  0.00000,1,2,   0.00,   1,1.0000
    99,    116,'1 ', 1.48000E-2, 1.01010E-1,   0.12066,    0.00,    0.00,  838.00,  0.00000,  0.00000,  0.00000,  0.00000,1,1,   0.00,   1,1.0000
   100,    104,'1 ', 1.38200E-2, 9.26800E-2,   0.11060,    0.00,    0.00,  747.00,  0.00000,  0.00000,  0.00000,  0.00000,1,1,   0.00,   1,1.0000
   100,    105,'1 ', 1.66800E-2, 1.13810E-1,   0.13608,    0.00,    0.00,  838.00,  0.00000,  0.00000,  0.00000,  0.00000,1,1,   0.00,   1,1.0000
   100,    112,'1 ', 1.11300E-2, 6.67800E-2,   0.07286,    0.00,    0.00,  752.00,  0.00000,  0.00000,  0.00000,  0.00000,1,1,   0.00,   1,1.0000
   100,    112,'2 ', 1.05000E-2, 6.54000E-2,   0.06860,    0.00,    0.00,  602.00,  0.00000,  0.00000,  0.00000,  0.00000,1,1,   0.00,   1,1.0000
   100,    112,'3 ', 1.10500E-2, 6.64200E-2,   0.07160,    0.00,    0.00,  752.00,  0.00000,  0.00000,  0.00000,  0.00000,1,1,   0.00,   1,1.0000
   100,    116,'1 ', 3.90300E-2, 2.74030E-1,   0.31072,    0.00,    0.00,  747.00,  0.00000,  0.00000,  0.00000,  0.00000,1,1,   0.00,   1,1.0000
   101,    103,'1 ', 7.90000E-4, 1.93700E-2,   1.32850,    0.00,    0.00,    0.00,  0.00000,  0.00000,  0.00000,  0.00000,1,2,   0.00,   1,1.0000
   101,    107,'1 ', 8.70000E-4, 2.08700E-2,   1.45710,    0.00,    0.00,    0.00,  0.00000,  0.00000,  0.00000,  0.00000,1,1,   0.00,   1,1.0000
   101,    107,'2 ', 8.70000E-4, 2.08700E-2,   1.45710,    0.00,    0.00,    0.00,  0.00000,  0.00000,  0.00000,  0.00000,1,1,   0.00,   1,1.0000
   103,    106,'1 ', 8.30000E-4, 1.98500E-2,   0.00000,    0.00,    0.00, 2450.00,  0.00000,  0.00000,  0.00000,  0.00000,1,2,   0.00,   1,1.0000
   103,    133,'1 ', 9.30000E-4, 3.64400E-2,   1.38950,    0.00,    0.00, 2450.00,  0.00000,  0.00000,  0.00000,  0.00000,1,2,   0.00,   1,1.0000
   103,    134,'1 ', 7.20000E-4, 1.60000E-2,   1.08790,    0.00,    0.00, 2450.00,  0.00000,  0.00000,  0.00000,  0.00000,1,1,   0.00,   1,1.0000
   104,    116,'1 ', 3.05800E-2, 2.04600E-1,   0.24472,    0.00,    0.00,  747.00,  0.00000,  0.00000,  0.00000,  0.00000,1,1,   0.00,   1,1.0000
   105,    116,'1 ', 2.23500E-2, 1.61060E-1,   0.18342,    0.00,    0.00,  838.00,  0.00000,  0.00000,  0.00000,  0.00000,1,1,   0.00,   1,1.0000
   106,    107,'1 ', 1.53000E-3, 1.47000E-2,   0.00000,    0.00,    0.00, 1560.00,  0.00000,  0.00000,  0.00000,  0.00000,1,1,   0.00,   1,1.0000
   106,    109,'1 ', 5.30000E-4, 1.29700E-2,   0.00000,    0.00,    0.00, 2450.00,  0.00000,  0.00000,  0.00000,  0.00000,1,2,   0.00,   1,1.0000
   107,    132,'1 ', 2.00000E-5,-1.33100E-2,   0.00000,    0.00,    0.00, 1800.00,  0.00000,  0.00000,  0.00000,  0.00000,1,2,   0.00,   1,1.0000
   107,    134,'1 ', 2.00000E-5,-9.98000E-3,   0.00000,    0.00,    0.00, 2450.00,  0.00000,  0.00000,  0.00000,  0.00000,1,2,   0.00,   1,1.0000
   107,    173,'1 ',-0.00000E+0,-9.35000E-3,   0.00000,    0.00,    0.00, 2134.00,  0.00000,  0.00000,  0.00000,  0.00000,1,1,   0.00,   1,1.0000
   107,    175,'1 ',-0.00000E+0,-9.44000E-3,   0.00000,    0.00,    0.00, 2134.00,  0.00000,  0.00000,  0.00000,  0.00000,1,1,   0.00,   1,1.0000
   107,    177,'1 ',-0.00000E+0,-9.35000E-3,   0.00000,    0.00,    0.00, 2134.00,  0.00000,  0.00000,  0.00000,  0.00000,1,1,   0.00,   1,1.0000
   110,    119,'1 ',-0.00000E+0,-1.00000E-2,   0.00000,    0.00,    0.00, 2667.00,  0.00000,  0.00000,  0.00000,  0.00000,1,1,   0.00,   1,1.0000
   110,    172,'1 ',-0.00000E+0,-1.00000E-2,   0.00000,    0.00,    0.00,    0.00,  0.00000,  0.00000,  0.00000,  0.00000,1,2,   0.00,   1,1.0000
   113,    123,'1 ', 2.00000E-5,-9.98000E-3,   0.00000,    0.00,    0.00, 1800.00,  0.00000,  0.00000,  0.00000,  0.00000,1,1,   0.00,   1,1.0000
   113,    125,'1 ', 2.00000E-5,-9.98000E-3,   0.00000,    0.00,    0.00, 1800.00,  0.00000,  0.00000,  0.00000,  0.00000,1,1,   0.00,   1,1.0000
   113,    168,'1 ',-0.00000E+0,-7.20000E-3,   0.00000,    0.00,    0.00, 1800.00,  0.00000,  0.00000,  0.00000,  0.00000,1,2,   0.00,   1,1.0000
   113,    170,'1 ',-0.00000E+0,-7.20000E-3,   0.00000,    0.00,    0.00, 1800.00,  0.00000,  0.00000,  0.00000,  0.00000,1,2,   0.00,   1,1.0000
   114,    124,'1 ', 1.00000E-5,-6.66000E-3,   0.00000,    0.00,    0.00, 1800.00,  0.00000,  0.00000,  0.00000,  0.00000,1,2,   0.00,   1,1.0000
   114,    126,'1 ', 1.00000E-5,-6.66000E-3,   0.00000,    0.00,    0.00, 1800.00,  0.00000,  0.00000,  0.00000,  0.00000,1,2,   0.00,   1,1.0000
   114,    127,'1 ', 1.00000E-5,-1.12000E-2,   0.00000,    0.00,    0.00, 2667.00,  0.00000,  0.00000,  0.00000,  0.00000,1,1,   0.00,   1,1.0000
   114,    129,'1 ', 1.00000E-5,-7.20000E-3,   0.00000,    0.00,    0.00, 2667.00,  0.00000,  0.00000,  0.00000,  0.00000,1,1,   0.00,   1,1.0000
   118,    122,'1 ',-0.00000E+0,-1.00000E-2,   0.00000,    0.00,    0.00, 2667.00,  0.00000,  0.00000,  0.00000,  0.00000,1,2,   0.00,   1,1.0000
   118,    128,'1 ', 1.00000E-5,-1.12000E-2,   0.00000,    0.00,    0.00, 2667.00,  0.00000,  0.00000,  0.00000,  0.00000,1,2,   0.00,   1,1.0000
   118,    130,'1 ', 1.00000E-5,-3.60000E-3,   0.00000,    0.00,    0.00, 2667.00,  0.00000,  0.00000,  0.00000,  0.00000,1,2,   0.00,   1,1.0000
   118,    131,'1 ', 1.00000E-5,-7.55000E-3,   0.00000,    0.00,    0.00,    0.00,  0.00000,  0.00000,  0.00000,  0.00000,1,1,   0.00,   1,1.0000
   118,    133,'1 ', 1.00000E-5,-1.09800E-2,   0.00000,    0.00,    0.00, 2450.00,  0.00000,  0.00000,  0.00000,  0.00000,1,1,   0.00,   1,1.0000
   119,    120,'1 ', 7.60000E-4, 1.95200E-2,   1.82450,    0.00,    0.00, 2894.00,  0.00000,  0.00000,  0.00000,  0.00000,1,1,   0.00,   1,1.0000
   120,    121,'1 ',-0.00000E+0,-1.00000E-2,   0.00000,    0.00,    0.00, 2667.00,  0.00000,  0.00000,  0.00000,  0.00000,1,1,   0.00,   1,1.0000
   121,    122,'1 ', 8.20000E-4, 2.11900E-2,   1.98420,    0.00,    0.00, 2894.00,  0.00000,  0.00000,  0.00000,  0.00000,1,1,   0.00,   1,1.0000
   123,    124,'1 ', 1.40000E-3, 2.33800E-2,   1.47500,    0.00,    0.00, 2396.00,  0.00000,  0.00000,  0.00000,  0.00000,1,1,   0.00,   1,1.0000
   125,    126,'1 ', 1.40000E-3, 2.33800E-2,   1.47500,    0.00,    0.00, 2396.00,  0.00000,  0.00000,  0.00000,  0.00000,1,1,   0.00,   1,1.0000
   127,    128,'1 ', 1.54000E-3, 3.40900E-2,   2.31140,    0.00,    0.00, 2450.00,  0.00000,  0.00000,  0.00000,  0.00000,1,1,   0.00,   1,1.0000
   129,    130,'1 ', 9.50000E-4, 2.10200E-2,   1.42520,    0.00,    0.00, 2450.00,  0.00000,  0.00000,  0.00000,  0.00000,1,1,   0.00,   1,1.0000
   131,    132,'1 ', 1.65000E-3, 5.71900E-2,   2.47740,    0.00,    0.00, 2450.00,  0.00000,  0.00000,  0.00000,  0.00000,1,1,   0.00,   1,1.0000
   135,    151,'1 ', 4.20000E-4, 9.05000E-3,   0.66794,    0.00,    0.00, 3600.00,  0.00000,  0.00000,  0.00000,  0.00000,1,1,   0.00,   1,1.0000
   136,    142,'1 ', 1.90000E-3, 2.58000E-2,   0.09840,    0.00,    0.00, 2320.00,  0.00000,  0.00000,  0.00000,  0.00000,1,1,   0.00,   1,1.0000
   136,    149,'1 ', 8.45000E-3, 7.03400E-2,   0.15954,    0.00,    0.00, 1160.00,  0.00000,  0.00000,  0.00000,  0.00000,1,1,   0.00,   1,1.0000
   138,    141,'1 ', 1.93000E-3, 2.77900E-2,   4.67120,    0.00,    0.00, 3600.00,  0.00000,  0.00000,  0.00000,  0.00000,1,1,   0.00,   1,1.0000
   138,    146,'1 ', 5.60000E-4, 1.41500E-2,   1.04290,    0.00,    0.00, 3600.00,  0.00000,  0.00000,  0.00000,  0.00000,1,2,   0.00,   1,1.0000
   140,    142,'1 ', 1.10000E-3, 1.27000E-2,   0.04800,    0.00,    0.00, 2320.00,  0.00000,  0.00000,  0.00000,  0.00000,1,1,   0.00,   1,1.0000
   141,    144,'1 ', 2.80000E-4, 7.53000E-3,   0.51736,    0.00,    0.00, 3600.00,  0.00000,  0.00000,  0.00000,  0.00000,1,1,   0.00,   1,1.0000
   141,    144,'2 ', 3.50000E-4, 7.50000E-3,   0.55360,    0.00,    0.00, 3600.00,  0.00000,  0.00000,  0.00000,  0.00000,1,1,   0.00,   1,1.0000
   141,    146,'1 ', 1.90000E-3, 3.10000E-2,   4.14020,    0.00,    0.00, 3600.00,  0.00000,  0.00000,  0.00000,  0.00000,1,1,   0.00,   1,1.0000
   141,    150,'1 ', 6.00000E-4, 1.28000E-2,   0.94620,    0.00,    0.00, 3600.00,  0.00000,  0.00000,  0.00000,  0.00000,1,1,   0.00,   1,1.0000
   141,    152,'1 ', 4.40000E-4, 1.12500E-2,   0.82920,    0.00,    0.00, 3600.00,  0.00000,  0.00000,  0.00000,  0.00000,1,1,   0.00,   1,1.0000
   141,    152,'2 ', 4.40000E-4, 1.12500E-2,   0.82920,    0.00,    0.00, 3600.00,  0.00000,  0.00000,  0.00000,  0.00000,1,1,   0.00,   1,1.0000
   142,    145,'1 ', 1.38000E-3, 5.39900E-2,   0.15252,    0.00,    0.00, 2320.00,  0.00000,  0.00000,  0.00000,  0.00000,1,2,   0.00,   1,1.0000
   142,    153,'1 ', 3.20000E-3, 3.95000E-2,   0.14400,    0.00,    0.00, 2320.00,  0.00000,  0.00000,  0.00000,  0.00000,1,2,   0.00,   1,1.0000
   144,    150,'1 ', 2.10000E-4, 4.57000E-3,   0.32336,    0.00,    0.00, 3600.00,  0.00000,  0.00000,  0.00000,  0.00000,1,1,   0.00,   1,1.0000
   149,    153,'1 ', 2.85000E-3, 3.64900E-2,   0.12656,    0.00,    0.00, 2320.00,  0.00000,  0.00000,  0.00000,  0.00000,1,1,   0.00,   1,1.0000
   149,    153,'2 ', 1.38000E-3, 3.39900E-2,   0.11252,    0.00,    0.00, 2320.00,  0.00000,  0.00000,  0.00000,  0.00000,1,1,   0.00,   1,1.0000
   150,    151,'1 ', 4.00000E-4, 9.30000E-3,   0.68560,    0.00,    0.00, 3600.00,  0.00000,  0.00000,  0.00000,  0.00000,1,1,   0.00,   1,1.0000
   152,    174,'1 ',-0.00000E+0,-9.35000E-3,   0.00000,    0.00,    0.00, 2134.00,  0.00000,  0.00000,  0.00000,  0.00000,1,2,   0.00,   1,1.0000
   152,    176,'1 ',-0.00000E+0,-9.35000E-3,   0.00000,    0.00,    0.00, 2134.00,  0.00000,  0.00000,  0.00000,  0.00000,1,2,   0.00,   1,1.0000
   152,    178,'1 ',-0.00000E+0,-8.40000E-3,   0.00000,    0.00,    0.00, 2100.00,  0.00000,  0.00000,  0.00000,  0.00000,1,2,   0.00,   1,1.0000
   154,    155,'1 ', 2.40000E-3, 3.32000E-2,   0.58490,    0.00,    0.00,    0.00,  0.00000,  0.00000,  0.00000,  0.00000,1,2,   0.00,   1,1.0000
   154,    157,'1 ', 5.20000E-3, 6.02000E-2,   1.01000,    0.00,    0.00,    0.00,  0.00000,  0.00000,  0.00000,  0.00000,1,1,   0.00,   1,1.0000
   154,    157,'2 ', 4.90000E-3, 5.37000E-2,   0.88430,    0.00,    0.00,    0.00,  0.00000,  0.00000,  0.00000,  0.00000,1,1,   0.00,   1,1.0000
   154,    159,'1 ', 1.70000E-3, 2.25000E-2,   0.39920,    0.00,    0.00,    0.00,  0.00000,  0.00000,  0.00000,  0.00000,1,1,   0.00,   1,1.0000
   154,    159,'2 ', 2.10000E-3, 2.38000E-2,   0.38450,    0.00,    0.00,    0.00,  0.00000,  0.00000,  0.00000,  0.00000,1,1,   0.00,   1,1.0000
   154,    164,'1 ', 1.20000E-3, 1.72000E-2,   0.29870,    0.00,    0.00,    0.00,  0.00000,  0.00000,  0.00000,  0.00000,1,1,   0.00,   1,1.0000
   154,    166,'1 ', 8.00000E-4, 1.06000E-2,   0.20390,    0.00,    0.00,    0.00,  0.00000,  0.00000,  0.00000,  0.00000,1,1,   0.00,   1,1.0000
   155,    166,'1 ', 1.60000E-3, 2.26000E-2,   0.38100,    0.00,    0.00,    0.00,  0.00000,  0.00000,  0.00000,  0.00000,1,1,   0.00,   1,1.0000
   156,    160,'1 ', 1.08000E-2, 9.65000E-2,   0.32960,    0.00,    0.00,    0.00,  0.00000,  0.00000,  0.00000,  0.00000,1,1,   0.00,   1,1.0000
   157,    163,'1 ', 9.60000E-3, 8.78000E-2,   1.42650,    0.00,    0.00,    0.00,  0.00000,  0.00000,  0.00000,  0.00000,1,1,   0.00,   1,1.0000
   157,    164,'1 ', 3.40000E-3, 3.92000E-2,   0.65240,    0.00,    0.00,    0.00,  0.00000,  0.00000,  0.00000,  0.00000,1,1,   0.00,   1,1.0000
   157,    165,'1 ', 3.40000E-3, 3.74000E-2,   0.62080,    0.00,    0.00,    0.00,  0.00000,  0.00000,  0.00000,  0.00000,1,1,   0.00,   1,1.0000
   157,    165,'2 ', 3.40000E-3, 3.72000E-2,   0.61820,    0.00,    0.00,    0.00,  0.00000,  0.00000,  0.00000,  0.00000,1,1,   0.00,   1,1.0000
   159,    165,'1 ', 3.80000E-3, 3.40000E-2,   0.58240,    0.00,    0.00,    0.00,  0.00000,  0.00000,  0.00000,  0.00000,1,1,   0.00,   1,1.0000
   159,    165,'2 ', 3.20000E-3, 3.49000E-2,   0.57220,    0.00,    0.00,    0.00,  0.00000,  0.00000,  0.00000,  0.00000,1,1,   0.00,   1,1.0000
   167,    168,'1 ', 1.03000E-3, 2.33800E-2,   1.58040,    0.00,    0.00, 3020.00,  0.00000,  0.00000,  0.00000,  0.00000,1,1,   0.00,   1,1.0000
   169,    170,'1 ', 1.07000E-3, 2.47000E-2,   1.52700,    0.00,    0.00, 3020.00,  0.00000,  0.00000,  0.00000,  0.00000,1,1,   0.00,   1,1.0000
   171,    172,'1 ', 1.03000E-3, 3.23000E-2,   2.79600,    0.00,    0.00,    0.00,  0.00000,  0.00000,  0.00000,  0.00000,1,1,   0.00,   1,1.0000
...
 0 /End of Branch data, Begin Transformer data
     1,     2,     0,'1 ',1,1,1, 0.00000E+0, 0.00000E+0,2,'                                        ',1,   1,1.0000
 0.00000E+0, 1.46000E-2,   100.00
1.00000,   0.000,   0.000,     0.00,     0.00,     0.00, 0,      0, 1.50000, 0.51000, 1.50000, 0.51000, 159, 0, 0.00000, 0.00000,  0.000
1.00000,   0.000
     1,     3,     0,'1 ',1,1,1, 0.00000E+0, 0.00000E+0,2,'                                        ',1,   1,1.0000
 0.00000E+0, 1.73000E-2,   100.00
0.95450,   0.000,   0.000,     0.00,     0.00,     0.00, 0,      0, 1.50000, 0.51000, 1.50000, 0.51000, 159, 0, 0.00000, 0.00000,  0.000
1.00000,   0.000
     4,     5,     0,'1 ',1,1,1, 0.00000E+0, 0.00000E+0,2,'                                        ',1,   1,1.0000
 0.00000E+0, 1.23800E-2,   100.00
1.00000,   0.000,   0.000,     0.00,     0.00,     0.00, 0,      0, 1.50000, 0.51000, 1.50000, 0.51000, 159, 0, 0.00000, 0.00000,  0.000
1.00000,   0.000
     4,    10,     0,'1 ',1,1,1, 0.00000E+0, 0.00000E+0,2,'                                        ',1,   1,1.0000
 0.00000E+0, 1.50000E-2,   100.00
1.00000,   0.000,   0.000,     0.00,     0.00,     0.00, 0,      0, 1.50000, 0.51000, 1.50000, 0.51000, 159, 0, 0.00000, 0.00000,  0.000
1.00000,   0.000
     6,     7,     0,'1 ',1,1,1, 0.00000E+0, 0.00000E+0,2,'                                        ',1,   1,1.0000
 0.00000E+0, 1.10000E-2,   100.00
1.06300,   0.000,   0.000,     0.00,     0.00,     0.00, 0,      0, 1.50000, 0.51000, 1.50000, 0.51000, 159, 0, 0.00000, 0.00000,  0.000
1.00000,   0.000
...